rawData/IEEE_123_other/dss_scripts/Master.dss
clear
set defaultbasefrequency=60
New Circuit.myCircuit basekv=4.16 bus1=1.1.2.3 pu=1.05 phases=3 MVAsc3=20000 MVASC1=21000 R1=0 X1=0.0001 R0=0 X0=0.0001
New Vsource.src basekv=4.16 bus1=1.1.2.3 pu=1.05 phases=3
Redirect BranchData.dss
Redirect Loads.dss
Redirect PVSystem.dss
Redirect Storage.dss
!PV systems were added just to check set_pv_controls() for aggregated models, Can ignore this for future uses
!New PVSystem.PV_50_a phases=1 bus1=50.1 kv=2.4 irradiance = 1 kva=12.0 Pmpp=10.0 Vmaxpu=1.05 Vminpu=0.95 %cutin=0.001 %cutout=0.001
!New PVSystem.PV_50 bus1=50 phases=3 kv=4.16 irradiance = 1 kva=305.22 Pmpp=254.35 Vmaxpu=1.05 Vminpu=0.95 %cutin=0.001 %cutout=0.001
!New PVSystem.PV_50_a bus1=50.1 phases=1 kv=2.4 irradiance = 1 kva=101.74 Pmpp=84.78 Vmaxpu=1.05 Vminpu=0.95 %cutin=0.001 %cutout=0.001
!New PVSystem.PV_50_b bus1=50.2 phases=1 kv=2.4 irradiance = 1 kva=101.74 Pmpp=84.78 Vmaxpu=1.05 Vminpu=0.95 %cutin=0.001 %cutout=0.001
!New PVSystem.PV_50_c bus1=50.3 phases=1 kv=2.4 irradiance = 1 kva=101.74 Pmpp=84.78 Vmaxpu=1.05 Vminpu=0.95 %cutin=0.001 %cutout=0.001
Set voltageBases=[4.16]
Calcvoltagebases 

