rawData/IEEE_123_other/dss_scripts/PVSystem.dss
New PVSystem.PV_3_a phases=1 bus1=3.1 kv=2.4 irradiance = 1 kva=12.0 Pmpp=10.0 Vmaxpu=1.05 Vminpu=0.95 %cutin=0.001 %cutout=0.001
New PVSystem.PV_3_b phases=1 bus1=3.2 kv=2.4 irradiance = 1 kva=12.0 Pmpp=10.0 Vmaxpu=1.05 Vminpu=0.95 %cutin=0.001 %cutout=0.001
New PVSystem.PV_3_c phases=1 bus1=3.3 kv=2.4 irradiance = 1 kva=12.0 Pmpp=10.0 Vmaxpu=1.05 Vminpu=0.95 %cutin=0.001 %cutout=0.001
New PVSystem.PV_9_a phases=1 bus1=9.1 kv=2.4 irradiance = 1 kva=12.0 Pmpp=10.0 Vmaxpu=1.05 Vminpu=0.95 %cutin=0.001 %cutout=0.001
New PVSystem.PV_9_b phases=1 bus1=9.2 kv=2.4 irradiance = 1 kva=12.0 Pmpp=10.0 Vmaxpu=1.05 Vminpu=0.95 %cutin=0.001 %cutout=0.001
New PVSystem.PV_9_c phases=1 bus1=9.3 kv=2.4 irradiance = 1 kva=12.0 Pmpp=10.0 Vmaxpu=1.05 Vminpu=0.95 %cutin=0.001 %cutout=0.001
New PVSystem.PV_15_a phases=1 bus1=15.1 kv=2.4 irradiance = 1 kva=12.0 Pmpp=10.0 Vmaxpu=1.05 Vminpu=0.95 %cutin=0.001 %cutout=0.001
New PVSystem.PV_15_b phases=1 bus1=15.2 kv=2.4 irradiance = 1 kva=12.0 Pmpp=10.0 Vmaxpu=1.05 Vminpu=0.95 %cutin=0.001 %cutout=0.001
New PVSystem.PV_15_c phases=1 bus1=15.3 kv=2.4 irradiance = 1 kva=12.0 Pmpp=10.0 Vmaxpu=1.05 Vminpu=0.95 %cutin=0.001 %cutout=0.001
New PVSystem.PV_20_a phases=1 bus1=20.1 kv=2.4 irradiance = 1 kva=12.0 Pmpp=10.0 Vmaxpu=1.05 Vminpu=0.95 %cutin=0.001 %cutout=0.001
New PVSystem.PV_20_b phases=1 bus1=20.2 kv=2.4 irradiance = 1 kva=12.0 Pmpp=10.0 Vmaxpu=1.05 Vminpu=0.95 %cutin=0.001 %cutout=0.001
New PVSystem.PV_20_c phases=1 bus1=20.3 kv=2.4 irradiance = 1 kva=12.0 Pmpp=10.0 Vmaxpu=1.05 Vminpu=0.95 %cutin=0.001 %cutout=0.001
New PVSystem.PV_23_a phases=1 bus1=23.1 kv=2.4 irradiance = 1 kva=12.0 Pmpp=10.0 Vmaxpu=1.05 Vminpu=0.95 %cutin=0.001 %cutout=0.001
New PVSystem.PV_23_b phases=1 bus1=23.2 kv=2.4 irradiance = 1 kva=12.0 Pmpp=10.0 Vmaxpu=1.05 Vminpu=0.95 %cutin=0.001 %cutout=0.001
New PVSystem.PV_23_c phases=1 bus1=23.3 kv=2.4 irradiance = 1 kva=12.0 Pmpp=10.0 Vmaxpu=1.05 Vminpu=0.95 %cutin=0.001 %cutout=0.001
New PVSystem.PV_25_a phases=1 bus1=25.1 kv=2.4 irradiance = 1 kva=12.0 Pmpp=10.0 Vmaxpu=1.05 Vminpu=0.95 %cutin=0.001 %cutout=0.001
New PVSystem.PV_25_b phases=1 bus1=25.2 kv=2.4 irradiance = 1 kva=12.0 Pmpp=10.0 Vmaxpu=1.05 Vminpu=0.95 %cutin=0.001 %cutout=0.001
New PVSystem.PV_25_c phases=1 bus1=25.3 kv=2.4 irradiance = 1 kva=12.0 Pmpp=10.0 Vmaxpu=1.05 Vminpu=0.95 %cutin=0.001 %cutout=0.001
New PVSystem.PV_30_a phases=1 bus1=30.1 kv=2.4 irradiance = 1 kva=12.0 Pmpp=10.0 Vmaxpu=1.05 Vminpu=0.95 %cutin=0.001 %cutout=0.001
New PVSystem.PV_30_b phases=1 bus1=30.2 kv=2.4 irradiance = 1 kva=12.0 Pmpp=10.0 Vmaxpu=1.05 Vminpu=0.95 %cutin=0.001 %cutout=0.001
New PVSystem.PV_30_c phases=1 bus1=30.3 kv=2.4 irradiance = 1 kva=12.0 Pmpp=10.0 Vmaxpu=1.05 Vminpu=0.95 %cutin=0.001 %cutout=0.001
New PVSystem.PV_37_a phases=1 bus1=37.1 kv=2.4 irradiance = 1 kva=12.0 Pmpp=10.0 Vmaxpu=1.05 Vminpu=0.95 %cutin=0.001 %cutout=0.001
New PVSystem.PV_37_b phases=1 bus1=37.2 kv=2.4 irradiance = 1 kva=12.0 Pmpp=10.0 Vmaxpu=1.05 Vminpu=0.95 %cutin=0.001 %cutout=0.001
New PVSystem.PV_37_c phases=1 bus1=37.3 kv=2.4 irradiance = 1 kva=12.0 Pmpp=10.0 Vmaxpu=1.05 Vminpu=0.95 %cutin=0.001 %cutout=0.001
New PVSystem.PV_44_a phases=1 bus1=44.1 kv=2.4 irradiance = 1 kva=12.0 Pmpp=10.0 Vmaxpu=1.05 Vminpu=0.95 %cutin=0.001 %cutout=0.001
New PVSystem.PV_44_b phases=1 bus1=44.2 kv=2.4 irradiance = 1 kva=12.0 Pmpp=10.0 Vmaxpu=1.05 Vminpu=0.95 %cutin=0.001 %cutout=0.001
New PVSystem.PV_44_c phases=1 bus1=44.3 kv=2.4 irradiance = 1 kva=12.0 Pmpp=10.0 Vmaxpu=1.05 Vminpu=0.95 %cutin=0.001 %cutout=0.001
New PVSystem.PV_49_a phases=1 bus1=49.1 kv=2.4 irradiance = 1 kva=12.0 Pmpp=10.0 Vmaxpu=1.05 Vminpu=0.95 %cutin=0.001 %cutout=0.001
New PVSystem.PV_49_b phases=1 bus1=49.2 kv=2.4 irradiance = 1 kva=12.0 Pmpp=10.0 Vmaxpu=1.05 Vminpu=0.95 %cutin=0.001 %cutout=0.001
New PVSystem.PV_49_c phases=1 bus1=49.3 kv=2.4 irradiance = 1 kva=12.0 Pmpp=10.0 Vmaxpu=1.05 Vminpu=0.95 %cutin=0.001 %cutout=0.001
New PVSystem.PV_50_a phases=1 bus1=50.1 kv=2.4 irradiance = 1 kva=12.0 Pmpp=10.0 Vmaxpu=1.05 Vminpu=0.95 %cutin=0.001 %cutout=0.001
New PVSystem.PV_50_b phases=1 bus1=50.2 kv=2.4 irradiance = 1 kva=12.0 Pmpp=10.0 Vmaxpu=1.05 Vminpu=0.95 %cutin=0.001 %cutout=0.001
New PVSystem.PV_50_c phases=1 bus1=50.3 kv=2.4 irradiance = 1 kva=12.0 Pmpp=10.0 Vmaxpu=1.05 Vminpu=0.95 %cutin=0.001 %cutout=0.001
New PVSystem.PV_51_a phases=1 bus1=51.1 kv=2.4 irradiance = 1 kva=12.0 Pmpp=10.0 Vmaxpu=1.05 Vminpu=0.95 %cutin=0.001 %cutout=0.001
New PVSystem.PV_51_b phases=1 bus1=51.2 kv=2.4 irradiance = 1 kva=12.0 Pmpp=10.0 Vmaxpu=1.05 Vminpu=0.95 %cutin=0.001 %cutout=0.001
New PVSystem.PV_51_c phases=1 bus1=51.3 kv=2.4 irradiance = 1 kva=12.0 Pmpp=10.0 Vmaxpu=1.05 Vminpu=0.95 %cutin=0.001 %cutout=0.001
New PVSystem.PV_56_a phases=1 bus1=56.1 kv=2.4 irradiance = 1 kva=12.0 Pmpp=10.0 Vmaxpu=1.05 Vminpu=0.95 %cutin=0.001 %cutout=0.001
New PVSystem.PV_56_b phases=1 bus1=56.2 kv=2.4 irradiance = 1 kva=12.0 Pmpp=10.0 Vmaxpu=1.05 Vminpu=0.95 %cutin=0.001 %cutout=0.001
New PVSystem.PV_56_c phases=1 bus1=56.3 kv=2.4 irradiance = 1 kva=12.0 Pmpp=10.0 Vmaxpu=1.05 Vminpu=0.95 %cutin=0.001 %cutout=0.001
New PVSystem.PV_59_a phases=1 bus1=59.1 kv=2.4 irradiance = 1 kva=12.0 Pmpp=10.0 Vmaxpu=1.05 Vminpu=0.95 %cutin=0.001 %cutout=0.001
New PVSystem.PV_59_b phases=1 bus1=59.2 kv=2.4 irradiance = 1 kva=12.0 Pmpp=10.0 Vmaxpu=1.05 Vminpu=0.95 %cutin=0.001 %cutout=0.001
New PVSystem.PV_59_c phases=1 bus1=59.3 kv=2.4 irradiance = 1 kva=12.0 Pmpp=10.0 Vmaxpu=1.05 Vminpu=0.95 %cutin=0.001 %cutout=0.001
New PVSystem.PV_62_a phases=1 bus1=62.1 kv=2.4 irradiance = 1 kva=12.0 Pmpp=10.0 Vmaxpu=1.05 Vminpu=0.95 %cutin=0.001 %cutout=0.001
New PVSystem.PV_62_b phases=1 bus1=62.2 kv=2.4 irradiance = 1 kva=12.0 Pmpp=10.0 Vmaxpu=1.05 Vminpu=0.95 %cutin=0.001 %cutout=0.001
New PVSystem.PV_62_c phases=1 bus1=62.3 kv=2.4 irradiance = 1 kva=12.0 Pmpp=10.0 Vmaxpu=1.05 Vminpu=0.95 %cutin=0.001 %cutout=0.001
New PVSystem.PV_65_a phases=1 bus1=65.1 kv=2.4 irradiance = 1 kva=12.0 Pmpp=10.0 Vmaxpu=1.05 Vminpu=0.95 %cutin=0.001 %cutout=0.001
New PVSystem.PV_65_b phases=1 bus1=65.2 kv=2.4 irradiance = 1 kva=12.0 Pmpp=10.0 Vmaxpu=1.05 Vminpu=0.95 %cutin=0.001 %cutout=0.001
New PVSystem.PV_65_c phases=1 bus1=65.3 kv=2.4 irradiance = 1 kva=12.0 Pmpp=10.0 Vmaxpu=1.05 Vminpu=0.95 %cutin=0.001 %cutout=0.001
New PVSystem.PV_67_a phases=1 bus1=67.1 kv=2.4 irradiance = 1 kva=12.0 Pmpp=10.0 Vmaxpu=1.05 Vminpu=0.95 %cutin=0.001 %cutout=0.001
New PVSystem.PV_67_b phases=1 bus1=67.2 kv=2.4 irradiance = 1 kva=12.0 Pmpp=10.0 Vmaxpu=1.05 Vminpu=0.95 %cutin=0.001 %cutout=0.001
New PVSystem.PV_67_c phases=1 bus1=67.3 kv=2.4 irradiance = 1 kva=12.0 Pmpp=10.0 Vmaxpu=1.05 Vminpu=0.95 %cutin=0.001 %cutout=0.001
New PVSystem.PV_78_a phases=1 bus1=78.1 kv=2.4 irradiance = 1 kva=12.0 Pmpp=10.0 Vmaxpu=1.05 Vminpu=0.95 %cutin=0.001 %cutout=0.001
New PVSystem.PV_78_b phases=1 bus1=78.2 kv=2.4 irradiance = 1 kva=12.0 Pmpp=10.0 Vmaxpu=1.05 Vminpu=0.95 %cutin=0.001 %cutout=0.001
New PVSystem.PV_78_c phases=1 bus1=78.3 kv=2.4 irradiance = 1 kva=12.0 Pmpp=10.0 Vmaxpu=1.05 Vminpu=0.95 %cutin=0.001 %cutout=0.001
New PVSystem.PV_88_a phases=1 bus1=88.1 kv=2.4 irradiance = 1 kva=12.0 Pmpp=10.0 Vmaxpu=1.05 Vminpu=0.95 %cutin=0.001 %cutout=0.001
New PVSystem.PV_88_b phases=1 bus1=88.2 kv=2.4 irradiance = 1 kva=12.0 Pmpp=10.0 Vmaxpu=1.05 Vminpu=0.95 %cutin=0.001 %cutout=0.001
New PVSystem.PV_88_c phases=1 bus1=88.3 kv=2.4 irradiance = 1 kva=12.0 Pmpp=10.0 Vmaxpu=1.05 Vminpu=0.95 %cutin=0.001 %cutout=0.001
New PVSystem.PV_93_a phases=1 bus1=93.1 kv=2.4 irradiance = 1 kva=12.0 Pmpp=10.0 Vmaxpu=1.05 Vminpu=0.95 %cutin=0.001 %cutout=0.001
New PVSystem.PV_93_b phases=1 bus1=93.2 kv=2.4 irradiance = 1 kva=12.0 Pmpp=10.0 Vmaxpu=1.05 Vminpu=0.95 %cutin=0.001 %cutout=0.001
New PVSystem.PV_93_c phases=1 bus1=93.3 kv=2.4 irradiance = 1 kva=12.0 Pmpp=10.0 Vmaxpu=1.05 Vminpu=0.95 %cutin=0.001 %cutout=0.001
New PVSystem.PV_95_a phases=1 bus1=95.1 kv=2.4 irradiance = 1 kva=12.0 Pmpp=10.0 Vmaxpu=1.05 Vminpu=0.95 %cutin=0.001 %cutout=0.001
New PVSystem.PV_95_b phases=1 bus1=95.2 kv=2.4 irradiance = 1 kva=12.0 Pmpp=10.0 Vmaxpu=1.05 Vminpu=0.95 %cutin=0.001 %cutout=0.001
New PVSystem.PV_95_c phases=1 bus1=95.3 kv=2.4 irradiance = 1 kva=12.0 Pmpp=10.0 Vmaxpu=1.05 Vminpu=0.95 %cutin=0.001 %cutout=0.001
New PVSystem.PV_99_a phases=1 bus1=99.1 kv=2.4 irradiance = 1 kva=12.0 Pmpp=10.0 Vmaxpu=1.05 Vminpu=0.95 %cutin=0.001 %cutout=0.001
New PVSystem.PV_99_b phases=1 bus1=99.2 kv=2.4 irradiance = 1 kva=12.0 Pmpp=10.0 Vmaxpu=1.05 Vminpu=0.95 %cutin=0.001 %cutout=0.001
New PVSystem.PV_99_c phases=1 bus1=99.3 kv=2.4 irradiance = 1 kva=12.0 Pmpp=10.0 Vmaxpu=1.05 Vminpu=0.95 %cutin=0.001 %cutout=0.001
New PVSystem.PV_101_a phases=1 bus1=101.1 kv=2.4 irradiance = 1 kva=12.0 Pmpp=10.0 Vmaxpu=1.05 Vminpu=0.95 %cutin=0.001 %cutout=0.001
New PVSystem.PV_101_b phases=1 bus1=101.2 kv=2.4 irradiance = 1 kva=12.0 Pmpp=10.0 Vmaxpu=1.05 Vminpu=0.95 %cutin=0.001 %cutout=0.001
New PVSystem.PV_101_c phases=1 bus1=101.3 kv=2.4 irradiance = 1 kva=12.0 Pmpp=10.0 Vmaxpu=1.05 Vminpu=0.95 %cutin=0.001 %cutout=0.001
New PVSystem.PV_102_a phases=1 bus1=102.1 kv=2.4 irradiance = 1 kva=12.0 Pmpp=10.0 Vmaxpu=1.05 Vminpu=0.95 %cutin=0.001 %cutout=0.001
New PVSystem.PV_102_b phases=1 bus1=102.2 kv=2.4 irradiance = 1 kva=12.0 Pmpp=10.0 Vmaxpu=1.05 Vminpu=0.95 %cutin=0.001 %cutout=0.001
New PVSystem.PV_102_c phases=1 bus1=102.3 kv=2.4 irradiance = 1 kva=12.0 Pmpp=10.0 Vmaxpu=1.05 Vminpu=0.95 %cutin=0.001 %cutout=0.001
New PVSystem.PV_103_a phases=1 bus1=103.1 kv=2.4 irradiance = 1 kva=12.0 Pmpp=10.0 Vmaxpu=1.05 Vminpu=0.95 %cutin=0.001 %cutout=0.001
New PVSystem.PV_103_b phases=1 bus1=103.2 kv=2.4 irradiance = 1 kva=12.0 Pmpp=10.0 Vmaxpu=1.05 Vminpu=0.95 %cutin=0.001 %cutout=0.001
New PVSystem.PV_103_c phases=1 bus1=103.3 kv=2.4 irradiance = 1 kva=12.0 Pmpp=10.0 Vmaxpu=1.05 Vminpu=0.95 %cutin=0.001 %cutout=0.001
New PVSystem.PV_107_a phases=1 bus1=107.1 kv=2.4 irradiance = 1 kva=12.0 Pmpp=10.0 Vmaxpu=1.05 Vminpu=0.95 %cutin=0.001 %cutout=0.001
New PVSystem.PV_107_b phases=1 bus1=107.2 kv=2.4 irradiance = 1 kva=12.0 Pmpp=10.0 Vmaxpu=1.05 Vminpu=0.95 %cutin=0.001 %cutout=0.001
New PVSystem.PV_107_c phases=1 bus1=107.3 kv=2.4 irradiance = 1 kva=12.0 Pmpp=10.0 Vmaxpu=1.05 Vminpu=0.95 %cutin=0.001 %cutout=0.001
New PVSystem.PV_110_a phases=1 bus1=110.1 kv=2.4 irradiance = 1 kva=12.0 Pmpp=10.0 Vmaxpu=1.05 Vminpu=0.95 %cutin=0.001 %cutout=0.001
New PVSystem.PV_110_b phases=1 bus1=110.2 kv=2.4 irradiance = 1 kva=12.0 Pmpp=10.0 Vmaxpu=1.05 Vminpu=0.95 %cutin=0.001 %cutout=0.001
New PVSystem.PV_110_c phases=1 bus1=110.3 kv=2.4 irradiance = 1 kva=12.0 Pmpp=10.0 Vmaxpu=1.05 Vminpu=0.95 %cutin=0.001 %cutout=0.001
New PVSystem.PV_119_a phases=1 bus1=119.1 kv=2.4 irradiance = 1 kva=12.0 Pmpp=10.0 Vmaxpu=1.05 Vminpu=0.95 %cutin=0.001 %cutout=0.001
New PVSystem.PV_119_b phases=1 bus1=119.2 kv=2.4 irradiance = 1 kva=12.0 Pmpp=10.0 Vmaxpu=1.05 Vminpu=0.95 %cutin=0.001 %cutout=0.001
New PVSystem.PV_119_c phases=1 bus1=119.3 kv=2.4 irradiance = 1 kva=12.0 Pmpp=10.0 Vmaxpu=1.05 Vminpu=0.95 %cutin=0.001 %cutout=0.001
New PVSystem.PV_120_a phases=1 bus1=120.1 kv=2.4 irradiance = 1 kva=12.0 Pmpp=10.0 Vmaxpu=1.05 Vminpu=0.95 %cutin=0.001 %cutout=0.001
New PVSystem.PV_120_b phases=1 bus1=120.2 kv=2.4 irradiance = 1 kva=12.0 Pmpp=10.0 Vmaxpu=1.05 Vminpu=0.95 %cutin=0.001 %cutout=0.001
New PVSystem.PV_120_c phases=1 bus1=120.3 kv=2.4 irradiance = 1 kva=12.0 Pmpp=10.0 Vmaxpu=1.05 Vminpu=0.95 %cutin=0.001 %cutout=0.001
New PVSystem.PV_122_a phases=1 bus1=122.1 kv=2.4 irradiance = 1 kva=12.0 Pmpp=10.0 Vmaxpu=1.05 Vminpu=0.95 %cutin=0.001 %cutout=0.001
New PVSystem.PV_122_b phases=1 bus1=122.2 kv=2.4 irradiance = 1 kva=12.0 Pmpp=10.0 Vmaxpu=1.05 Vminpu=0.95 %cutin=0.001 %cutout=0.001
New PVSystem.PV_122_c phases=1 bus1=122.3 kv=2.4 irradiance = 1 kva=12.0 Pmpp=10.0 Vmaxpu=1.05 Vminpu=0.95 %cutin=0.001 %cutout=0.001
